Circuit: * C:\Users\Administrador\Desktop\Supernova\Simulacoes-Eletronica\ASR3000 - Circuito de Potencia\Optoacoplador e Mosfet\optoacoplador_4.asc

Direct Newton iteration for .op point succeeded.

Date: Thu May 26 15:08:16 2022
Total elapsed time: 0.148 seconds.

tnom = 27
temp = 27
method = modified trap
totiter = 2545
traniter = 2532
tranpoints = 1182
accept = 1142
rejected = 40
matrix size = 18
fillins = 0
solver = Normal
Matrix Compiler1: 906 bytes object code size  0.5/0.3/[0.2]
Matrix Compiler2: 1.33 KB object code size  0.3/0.4/[0.2]

