Circuit: * C:\Users\Administrador\Desktop\Supernova\Simulacoes-Eletronica\ASR3000 - Circuito de Potencia\Optoacoplador e Mosfet\optoacoplador_4.asc

Direct Newton iteration for .op point succeeded.

Date: Mon Nov 08 20:12:14 2021
Total elapsed time: 0.215 seconds.

tnom = 27
temp = 27
method = modified trap
totiter = 2509
traniter = 2496
tranpoints = 1176
accept = 1139
rejected = 37
matrix size = 19
fillins = 2
solver = Normal
Matrix Compiler1: 1.04 KB object code size  0.7/0.1/[0.1]
Matrix Compiler2: 1.43 KB object code size  0.2/0.2/[0.1]

