Circuit: * C:\Users\Administrador\Desktop\Supernova\Simulacoes-Eletronica\ASR3000 - Circuito de Potencia\Optoacoplador e Transistor\optoacoplador(1).asc

Direct Newton iteration for .op point succeeded.

Date: Tue Nov 09 00:29:34 2021
Total elapsed time: 0.265 seconds.

tnom = 27
temp = 27
method = modified trap
totiter = 2440
traniter = 2427
tranpoints = 1159
accept = 1125
rejected = 34
matrix size = 20
fillins = 2
solver = Normal
Matrix Compiler1: 1.18 KB object code size  0.3/0.2/[0.1]
Matrix Compiler2: 1.59 KB object code size  0.2/0.3/[0.2]

